%chk=geom_opt_adpadp_eq.chk
%mem=60GB
%cpu=0,1,2,3,4,5,6,7,8,9
%gpucpu=0-0=0
# B3LYP/6-31G(d) pop=none NoSymm 

ADP + ADP + MG + nearby residues

3 1
 C                  -0.273990   -3.139429   -8.059353
 H                   0.061244   -3.898062   -8.774271
 C                   0.305491   -3.438987   -6.679779
 H                   1.400589   -3.420728   -6.710494
 H                  -0.012698   -4.428208   -6.333998
 O                  -0.171831   -2.462769   -5.715231
 P                   0.758747   -1.939358   -4.505221
 O                   1.421774   -3.102094   -3.757733
 O                   0.010688   -0.911747   -3.703337
 O                   1.945740   -1.221249   -5.415966
 P                   3.227225   -0.268933   -5.132567
 O                   4.018960   -0.370422   -6.443957
 O                   4.023400   -0.713593   -3.898773
 O                   2.572475    1.166159   -4.938626
 H                   3.285923    1.832709   -4.655913
 C                   9.849418    4.980632   -1.944596
 H                  10.015987    6.006208   -1.599940
 C                   8.861427    4.292422   -0.994905
 H                   7.902174    4.815409   -0.971995
 H                   9.255631    4.261161    0.023788
 O                   8.651327    2.900891   -1.412560
 P                   7.285436    2.078075   -1.210655
 O                   6.470750    2.304858    0.014907
 O                   7.587917    0.643764   -1.658863
 O                   6.432756    2.749664   -2.559907
 P                   4.843153    2.778360   -2.755272
 O                   4.423061    4.235972   -2.189840
 O                   4.097746    1.731060   -1.966313
 O                   4.581306    2.677613   -4.272312
 O                   1.740305    0.326512   -1.953108
 H                   1.043200   -0.130077   -2.490952
 H                   1.773105    1.241972   -2.276374
 O                   2.979660   -2.212232   -1.540798
 H                   3.686304   -2.871780   -1.464029
 H                   2.383127   -2.532086   -2.263089
 O                   5.641575   -1.094481   -1.305776
 H                   5.587909   -1.232970   -0.342857
 H                   6.427187   -0.462407   -1.397427
 O                   4.059179    0.306992    0.331488
 H                   4.713806    1.045665    0.303989
 H                   3.315645    0.642925    0.860161
 N                  -1.895373    6.946769   -3.924144
 H                  -1.536648    6.962165   -2.969552
 C                  -0.767722    7.044559   -4.842289
 H                  -1.178528    7.012604   -5.860315
 C                  -0.060094    8.399826   -4.640996
 H                   0.724467    8.575731   -5.380116
 H                   0.406836    8.442667   -3.651370
 H                  -0.803237    9.197963   -4.714366
 C                   0.241388    5.887219   -4.676646
 O                   0.219741    5.146682   -3.687913
 N                   1.170967    5.700287   -5.660490
 C                   1.322032    6.418666   -6.925920
 H                   1.980402    7.289862   -6.805458
 H                   0.361166    6.766405   -7.307365
 C                   2.362867    4.902951   -5.428977
 H                   2.121100    4.048704   -4.795278
 C                   2.849126    4.513449   -6.852715
 H                   2.727018    3.439710   -7.023386
 H                   3.908826    4.752264   -6.978823
 C                   1.974296    5.353164   -7.822341
 H                   2.552092    5.803413   -8.635394
 H                   1.194186    4.726942   -8.267706
 C                   3.402818    5.807606   -4.622023
 O                   3.028690    6.785550   -4.001582
 N                   4.739574    5.429101   -4.662411
 H                   4.861970    4.456319   -4.920908
 C                   5.665476    5.871272   -3.603609
 H                   5.710321    6.960553   -3.565911
 H                   6.664781    5.485501   -3.825393
 C                   5.249856    5.387575   -2.208946
 O                   5.544714    5.918040   -1.185019
 C                   2.895535    3.151074    2.850113
 H                   2.476510    2.991270    3.849889
 C                   1.886284    2.766323    1.758965
 H                   1.623629    1.697487    1.849585
 H                   2.349895    2.902546    0.771099
 C                   0.594165    3.593784    1.843846
 H                   0.855105    4.658343    1.763553
 H                   0.159523    3.463581    2.843226
 C                  -0.484323    3.267334    0.796710
 H                  -1.360744    3.896922    1.010819
 H                  -0.819888    2.226135    0.903358
 C                  -0.043459    3.522363   -0.647802
 H                   0.631886    2.727052   -0.982690
 H                   0.519152    4.464865   -0.706146
 N                  -1.196550    3.552213   -1.585029
 H                  -1.837229    4.274070   -1.244853
 H                  -2.346046    6.038995   -4.031917
 H                  -0.851511    3.932514   -2.473351
 C                   2.802297  -10.323567   -7.280345
 H                   3.755937  -10.851465   -7.168522
 C                   2.245921   -9.890267   -5.917693
 H                   2.067312  -10.780001   -5.298642
 H                   1.269319   -9.405578   -6.055740
 C                   3.193523   -8.943944   -5.166733
 H                   3.358791   -8.035862   -5.767920
 H                   4.176647   -9.422258   -5.063005
 C                   2.741561   -8.564038   -3.748472
 H                   3.527244   -8.016752   -3.216145
 H                   2.543657   -9.467618   -3.164868
 N                   1.509777   -7.751495   -3.674259
 H                   0.635335   -8.239675   -3.531723
 C                   1.460928   -6.415386   -3.712403
 N                   2.546603   -5.688387   -4.024221
 H                   3.312036   -6.119494   -4.519646
 H                   2.424495   -4.671466   -4.074651
 N                   0.324022   -5.753643   -3.439384
 H                   0.373000   -4.729893   -3.435462
 H                  -0.410283   -6.199764   -2.906856
 C                  -8.999155    0.644075   -3.820047
 H                  -8.563528    1.251292   -4.623435
 C                  -7.931881    0.021006   -2.907018
 H                  -7.304635   -0.678045   -3.482250
 H                  -8.430882   -0.595009   -2.150046
 C                  -7.042441    1.043730   -2.172407
 H                  -6.506195    0.551893   -1.350068
 H                  -7.683390    1.807442   -1.713093
 C                  -6.021258    1.774603   -3.057659
 H                  -5.599953    2.640289   -2.539951
 H                  -6.501318    2.161825   -3.962943
 N                  -4.890334    0.932230   -3.494461
 H                  -5.098753    0.218315   -4.180007
 C                  -3.607164    1.030544   -3.096819
 N                  -3.257923    1.676107   -1.983786
 H                  -3.992129    1.926705   -1.335469
 H                  -2.347645    2.216451   -1.869163
 N                  -2.652650    0.461961   -3.858192
 H                  -1.745586    0.171064   -3.498287
 H                  -2.878684    0.131459   -4.784524
 C                  13.124966    2.591579   -5.015412
 H                  13.861312    1.884889   -4.616248
 C                  11.761407    2.395784   -4.357959
 H                  11.073042    3.156550   -4.760865
 H                  11.826590    2.592196   -3.280495
 C                  11.205227    0.981907   -4.575840
 H                  11.874577    0.258609   -4.094439
 H                  11.201522    0.739342   -5.647925
 C                   9.804648    0.769029   -3.999913
 H                   9.770929    0.994363   -2.930378
 H                   9.478154   -0.266988   -4.134218
 N                   8.837042    1.623925   -4.710921
 H                   9.188419    2.521326   -5.018256
 C                   7.537188    1.390821   -4.872800
 N                   6.971567    0.335222   -4.264778
 H                   7.262816    0.258334   -3.267083
 H                   5.970787    0.229032   -4.407185
 N                   6.822424    2.129736   -5.759742
 H                   5.881068    2.366594   -5.414694
 H                   7.317483    2.893213   -6.205361
 C                  10.400999   -3.290307   -9.763609
 H                   9.942194   -4.089947  -10.356550
 C                   9.580055   -2.986284   -8.506945
 H                   8.580788   -2.638550   -8.808890
 H                  10.034711   -2.151270   -7.956169
 C                   9.453455   -4.193548   -7.562701
 H                  10.435352   -4.451056   -7.149988
 H                   9.123219   -5.082484   -8.120491
 C                   8.496466   -3.966267   -6.385005
 H                   8.794149   -3.063332   -5.837549
 H                   8.516669   -4.813898   -5.690501
 N                   7.128291   -3.775901   -6.900755
 H                   6.979917   -4.087326   -7.851954
 C                   6.123282   -3.099329   -6.335718
 N                   6.204612   -2.634443   -5.085165
 H                   7.091708   -2.599632   -4.604457
 H                   5.461376   -2.044977   -4.702060
 N                   4.960796   -2.928473   -7.007180
 H                   4.467011   -2.039182   -6.804134
 H                   4.956630   -3.194751   -7.983743
 C                  -0.265349    4.128764  -12.357235
 H                  -0.624274    3.354566  -13.045170
 C                   0.816832    3.585994  -11.420330
 H                   0.390985    2.782657  -10.801379
 H                   1.130851    4.373440  -10.721874
 C                   2.052492    3.068162  -12.170905
 H                   2.506980    3.882368  -12.747431
 H                   1.762010    2.307434  -12.910472
 C                   3.142468    2.491571  -11.260299
 H                   3.422339    3.229380  -10.499520
 H                   4.036050    2.235476  -11.843203
 N                   2.644190    1.291007  -10.564451
 H                   1.911249    0.771996  -11.032045
 C                   3.070973    0.808085   -9.395702
 N                   4.156235    1.294087   -8.783352
 H                   4.806959    1.890659   -9.271053
 H                   4.392355    0.925560   -7.857321
 N                   2.417115   -0.215442   -8.806361
 H                   2.739243   -0.461739   -7.864670
 H                   1.431143   -0.330918   -8.997221
 Mg                  3.746812   -0.254162   -1.766217
 H                   9.456284    5.019350   -2.967008
 H                  10.811767    4.460970   -1.955287
 H                   0.052119   -2.155429   -8.412632
 H                  -1.367432   -3.148392   -8.035501
 H                  13.508530    3.601430   -4.840098
 H                  13.071094    2.438651   -6.099841
 H                   2.969594   -9.460851   -7.936985
 H                   2.107186  -10.998162   -7.788806
 H                  11.417430   -3.609053   -9.508065
 H                  10.482356   -2.405214  -10.402040
 H                  -9.605147   -0.134595   -4.293552
 H                  -9.674912    1.288665   -3.247185
 H                   3.173000    4.207531    2.768207
 H                   3.819398    2.565277    2.777536
 H                   0.113027    4.960186  -12.962050
 H                  -1.126436    4.495990  -11.790287

